pyensys/tests/matpower/Distribution_Network_Rural_UK.m
% THIS MATLAB FILE PROVIDES THE PARAMETERS OF THE ELECTRICITY NETWORK IN GHANA

function mpc = Distribution_Network_Rural_UK

% MATPOWER Case Format : Version 2
mpc.version = '2';


%-----  Power Flow Data  -----%

% system MVA base
mpc.baseMVA = 100;

% bus data
% bus_i	type Pd	    Qd	    Gs	Bs	area Vm	   Va	baseKV	zone Vmax	Vmin
mpc.bus=[
	  1 1   0.0000   0.0000 0 0 1  1.0000 0 6.600000e+00 1  1.06  0.94
	  2 1   0.0000   0.0000 0 0 1  1.0000 0 6.600000e+00 1  1.06  0.94
	  3 3   0.0000   0.0000 0 0 1  1.0000 0 6.600000e+00 1  1.06  0.94
	  4 1   0.0000   0.0000 0 0 1  1.0000 0 6.600000e+00 1  1.06  0.94
	  5 1   0.0000   0.0000 0 0 1  1.0000 0 6.600000e+00 1  1.06  0.94
	  6 1   0.0000   0.0000 0 0 1  1.0000 0 6.600000e+00 1  1.06  0.94
	  7 1   0.0000   0.0000 0 0 1  1.0000 0 6.600000e+00 1  1.06  0.94
	  8 1   0.0000   0.0000 0 0 1  1.0000 0 6.600000e+00 1  1.06  0.94
	  9 1   0.0000   0.0000 0 0 1  1.0000 0 6.600000e+00 1  1.06  0.94
	 10 1   0.0000   0.0000 0 0 1  1.0000 0 6.600000e+00 1  1.06  0.94
	 11 1   0.0000   0.0000 0 0 1  1.0000 0 6.600000e+00 1  1.06  0.94
	 12 1   0.1946   0.0640 0 0 1  0.9916 2.747100e-02 6.600000e+00 1  1.06  0.94
	 13 1   0.6403   0.2105 0 0 1  0.9935 7.826100e-04 6.600000e+00 1  1.06  0.94
	 14 1   0.0000   0.0000 0 0 1  0.9959 4.650900e-04 6.600000e+00 1  1.06  0.94
	 15 1   0.0000   0.0000 0 0 1  0.9999 -1.838400e-03 6.600000e+00 1  1.06  0.94
	 16 1   0.1839   0.0605 0 0 1  0.9951 -7.320700e-02 6.600000e+00 1  1.06  0.94
	 17 1   0.2920   0.0960 0 0 1  0.9911 -7.933000e-02 6.600000e+00 1  1.06  0.94
	 18 1   0.0487   0.0160 0 0 1  0.9881 -9.604000e-02 6.600000e+00 1  1.06  0.94
	 19 1   0.4360   0.1433 0 0 1  0.9965 -8.140200e-02 6.600000e+00 1  1.06  0.94
	 20 1   0.1129   0.0371 0 0 1  0.9986 -3.180600e-02 6.600000e+00 1  1.06  0.94
	 21 1   0.3591   0.1180 0 0 1  0.9872 4.607300e-02 6.600000e+00 1  1.06  0.94
	 22 1   0.1917   0.0630 0 0 1  0.9881 4.595600e-02 6.600000e+00 1  1.06  0.94
	 23 1   0.0000   0.0000 0 0 1  0.9887 -8.879900e-02 6.600000e+00 1  1.06  0.94
	 24 1   0.0000   0.0000 0 0 1  0.9887 -8.808000e-02 6.600000e+00 1  1.06  0.94
	 25 1   0.0243   0.0080 0 0 1  0.9857 -1.957400e-01 6.600000e+00 1  1.06  0.94
	 26 1   0.0000   0.0000 0 0 1  0.9876 -1.282300e-01 6.600000e+00 1  1.06  0.94
	 27 1   0.1839   0.0605 0 0 1  0.9757 -3.499300e-01 6.600000e+00 1  1.06  0.94
	 28 1   0.0078   0.0026 0 0 1  0.9677 -7.791700e-01 6.600000e+00 1  1.06  0.94
	 29 1   0.3309   0.1088 0 0 1  0.9895 -7.861000e-02 6.600000e+00 1  1.06  0.94
	 30 1   0.0000   0.0000 0 0 1  0.9809 -3.470000e-01 6.600000e+00 1  1.06  0.94
	 31 1   0.0000   0.0000 0 0 1  0.9815 -3.464800e-01 6.600000e+00 1  1.06  0.94
	 32 1   0.0000   0.0000 0 0 1  0.9759 -3.501000e-01 6.600000e+00 1  1.06  0.94
	 33 1   0.0078   0.0026 0 0 1  0.9744 -5.974200e-01 6.600000e+00 1  1.06  0.94
	 34 1   0.0000   0.0000 0 0 1  0.9792 -4.313800e-01 6.600000e+00 1  1.06  0.94
	 35 1   0.0117   0.0038 0 0 1  0.9742 -5.922400e-01 6.600000e+00 1  1.06  0.94
	 36 1   0.0117   0.0038 0 0 1  0.9747 -5.947300e-01 6.600000e+00 1  1.06  0.94
	 37 1   0.0000   0.0000 0 0 1  0.9747 -5.938700e-01 6.600000e+00 1  1.06  0.94
	 38 1   0.0000   0.0000 0 0 1  0.9748 -5.924600e-01 6.600000e+00 1  1.06  0.94
	 39 1   0.0000   0.0000 0 0 1  0.9747 -5.950700e-01 6.600000e+00 1  1.06  0.94
	 40 1   0.0000   0.0000 0 0 1  0.9747 -5.943300e-01 6.600000e+00 1  1.06  0.94
	 41 1   0.0243   0.0080 0 0 1  0.9675 -8.413500e-01 6.600000e+00 1  1.06  0.94
	 42 1   0.0049   0.0016 0 0 1  0.9700 -7.481500e-01 6.600000e+00 1  1.06  0.94
	 43 1   0.0078   0.0026 0 0 1  0.9678 -7.776600e-01 6.600000e+00 1  1.06  0.94
	 44 1   0.0000   0.0000 0 0 1  0.9698 -7.513000e-01 6.600000e+00 1  1.06  0.94
	 45 1   0.0000   0.0000 0 0 1  0.9705 -7.288900e-01 6.600000e+00 1  1.06  0.94
	 46 1   0.0000   0.0000 0 0 1  0.9700 -7.479300e-01 6.600000e+00 1  1.06  0.94
	 47 1   0.0243   0.0080 0 0 1  0.9669 -8.646200e-01 6.600000e+00 1  1.06  0.94
	 48 1   0.0078   0.0026 0 0 1  0.9669 -8.629900e-01 6.600000e+00 1  1.06  0.94
	 49 1   0.0078   0.0026 0 0 1  0.9665 -7.950300e-01 6.600000e+00 1  1.06  0.94
	 50 1   0.0049   0.0016 0 0 1  0.9662 -7.987800e-01 6.600000e+00 1  1.06  0.94
	 51 1   0.0117   0.0038 0 0 1  0.9660 -8.022200e-01 6.600000e+00 1  1.06  0.94
	 52 1   0.1168   0.0384 0 0 1  0.9653 -9.214700e-01 6.600000e+00 1  1.06  0.94
	 53 1   0.0243   0.0080 0 0 1  0.9661 -8.928500e-01 6.600000e+00 1  1.06  0.94
	 54 1   0.0243   0.0080 0 0 1  0.9661 -8.009400e-01 6.600000e+00 1  1.06  0.94
	 55 1   0.0019   0.0006 0 0 1  0.9669 -7.895800e-01 6.600000e+00 1  1.06  0.94
	 56 1   0.0000   0.0000 0 0 1  0.9654 -9.215400e-01 6.600000e+00 1  1.06  0.94
	 57 1   0.0000   0.0000 0 0 1  0.9661 -8.009400e-01 6.600000e+00 1  1.06  0.94
	 58 1   0.0000   0.0000 0 0 1  0.9663 -7.974900e-01 6.600000e+00 1  1.06  0.94
	 59 1   0.0000   0.0000 0 0 1  0.9669 -7.894300e-01 6.600000e+00 1  1.06  0.94
	 60 1   0.0000   0.0000 0 0 1  0.9654 -9.215400e-01 6.600000e+00 1  1.06  0.94
	 61 1   0.0000   0.0000 0 0 1  0.9661 -8.009100e-01 6.600000e+00 1  1.06  0.94
	 62 1   0.0049   0.0016 0 0 1  0.9658 -8.037600e-01 6.600000e+00 1  1.06  0.94
	 63 1   0.0068   0.0022 0 0 1  0.9656 -8.039200e-01 6.600000e+00 1  1.06  0.94
	 64 1   0.0000   0.0000 0 0 1  0.9658 -8.037900e-01 6.600000e+00 1  1.06  0.94
	 65 1   0.0000   0.0000 0 0 1  0.9659 -8.037500e-01 6.600000e+00 1  1.06  0.94
	 66 1   0.0019   0.0006 0 0 1  0.9746 -5.954100e-01 6.600000e+00 1  1.06  0.94
	];

% branch data
%fbus tbus	r           x	    b	    rateA   B	C ratio	angle status angmin	angmax
mpc.branch=[
	 16  22   0.00471200   0.00373711 0.000000 7.716001e+00 9.259201e+00 9.259201 0.000000 0.000000 1 -360 360 % NOP
	  6   3   0.00000083   0.00000083 0.000000 6.000001e+01 7.200002e+01 72.000016 0.000000 0.000000 1 -360 360
	  8   6   0.00000826   0.00000826 0.000000 6.000001e+01 7.200002e+01 72.000016 0.000000 0.000000 1 -360 360
	  1   8   0.00000661   0.00000661 0.000000 6.000001e+01 7.200002e+01 72.000016 0.000000 0.000000 1 -360 360
	  2   1   0.00000082   0.00000082 0.000000 6.000001e+01 7.200002e+01 72.000016 0.000000 0.000000 1 -360 360
	  7   2   0.00000049   0.00000049 0.000000 6.000001e+01 7.200002e+01 72.000016 0.000000 0.000000 1 -360 360
	  5   7   0.00000049   0.00000049 0.000000 6.000001e+01 7.200002e+01 72.000016 0.000000 0.000000 1 -360 360
	 15   5   0.00319945   0.00271258 0.000000 5.256003e+00 6.307203e+00 6.307203 0.000000 0.000000 1 -360 360
	 15  20   0.05208630   0.04416010 0.000000 5.256003e+00 6.307203e+00 6.307203 0.000000 0.000000 1 -360 360 % feeder 1
	 19  20   0.09123970   0.07735540 0.000000 5.256003e+00 6.307203e+00 6.307203 0.000000 0.000000 1 -360 360 % feeder 1 (another connection)
	 19  16   0.68392000   0.14768000 0.000000 2.796005e+00 3.355206e+00 3.355206 0.000000 0.000000 1 -360 360
	 19  17   0.40170800   0.13099200 0.000000 3.486001e+00 4.183201e+00 4.183201 0.000000 0.000000 1 -360 360
	 17  29   0.15143300   0.04938020 0.000000 3.486001e+00 4.183201e+00 4.183201 0.000000 0.000000 1 -360 360
	 29  24   0.11702900   0.06758030 0.000000 4.110003e+00 4.932003e+00 4.932003 0.000000 0.000000 1 -360 360
	 24  26   0.14845700   0.17960100 0.000000 2.604001e+00 3.124801e+00 3.124801 0.000000 0.000000 1 -360 360
	 26  25   0.24888400   0.30109500 0.000000 2.604001e+00 3.124801e+00 3.124801 0.000000 0.000000 1 -360 360
	 25  31   0.57927500   0.70079400 0.000000 2.604001e+00 3.124801e+00 3.124801 0.000000 0.000000 1 -360 360
	 31  34   0.51523400   0.62332000 0.000000 2.604001e+00 3.124801e+00 3.124801 0.000000 0.000000 1 -360 360
	 34  38   0.97079400   1.17445000 0.000000 2.604001e+00 3.124801e+00 3.124801 0.000000 0.000000 1 -360 360
	 35  38   0.16157000   0.05268600 0.000000 3.486001e+00 4.183201e+00 4.183201 0.000000 0.000000 1 -360 360
	 45  35   0.91257600   1.10402000 0.000000 2.604001e+00 3.124801e+00 3.124801 0.000000 0.000000 1 -360 360
	 45  46   0.12662500   0.15318900 0.000000 2.604001e+00 3.124801e+00 3.124801 0.000000 0.000000 1 -360 360
	 46  41   0.87910000   1.06352000 0.000000 2.604001e+00 3.124801e+00 3.124801 0.000000 0.000000 1 -360 360
	 41  48   0.23141900   0.27996600 0.000000 2.604001e+00 3.124801e+00 3.124801 0.000000 0.000000 1 -360 360
	 48  53   0.39152000   0.47365200 0.000000 2.604001e+00 3.124801e+00 3.124801 0.000000 0.000000 1 -360 360
	 53  60   0.45395000   0.54918000 0.000000 2.604001e+00 3.124801e+00 3.124801 0.000000 0.000000 1 -360 360
	 52  60   0.03802050   0.01138140 0.000000 4.116004e+00 4.939205e+00 4.939205 0.000000 0.000000 1 -360 360
	 60  56   0.12806000   0.09596300 0.000000 2.604001e+00 3.124801e+00 3.124801 0.000000 0.000000 1 -360 360
	 48  47   0.12371400   0.14966700 0.000000 2.604001e+00 3.124801e+00 3.124801 0.000000 0.000000 1 -360 360
	 46  42   0.26364100   0.15835200 0.000000 1.919995e+00 2.303994e+00 2.303994 0.000000 0.000000 1 -360 360
	 44  46   0.26074400   0.15661200 0.000000 1.919995e+00 2.303994e+00 2.303994 0.000000 0.000000 1 -360 360
	 43  44   2.03960000   1.22505000 0.000000 1.919995e+00 2.303994e+00 2.303994 0.000000 0.000000 1 -360 360
	 59  43   1.13568000   0.68213000 0.000000 1.919995e+00 2.303994e+00 2.303994 0.000000 0.000000 1 -360 360
	 49  59   0.55625300   0.33410500 0.000000 1.919995e+00 2.303994e+00 2.303994 0.000000 0.000000 1 -360 360
	 58  49   0.28102400   0.16879200 0.000000 1.919995e+00 2.303994e+00 2.303994 0.000000 0.000000 1 -360 360
	 58  50   0.27233200   0.16357200 0.000000 1.919995e+00 2.303994e+00 2.303994 0.000000 0.000000 1 -360 360
	 50  61   0.54629500   0.32812400 0.000000 1.919995e+00 2.303994e+00 2.303994 0.000000 0.000000 1 -360 360
	 61  51   0.33483900   0.20111600 0.000000 1.919995e+00 2.303994e+00 2.303994 0.000000 0.000000 1 -360 360
	 51  65   0.78802600   0.47331500 0.000000 1.919995e+00 2.303994e+00 2.303994 0.000000 0.000000 1 -360 360
	 65  62   0.35149200   0.12043200 0.000000 1.134000e+00 1.360800e+00 1.360800 0.000000 0.000000 1 -360 360
	 65  64   0.58197900   0.19940300 0.000000 1.134000e+00 1.360800e+00 1.360800 0.000000 0.000000 1 -360 360
	 64  63   2.10675000   0.72442600 0.000000 1.056000e+00 1.267199e+00 1.267199 0.000000 0.000000 1 -360 360
	 54  58   0.84886600   0.50985800 0.000000 1.919995e+00 2.303994e+00 2.303994 0.000000 0.000000 1 -360 360
	 57  54   0.14775500   0.08874660 0.000000 1.919995e+00 2.303994e+00 2.303994 0.000000 0.000000 1 -360 360
	 55  59   0.39338800   0.25289300 0.000000 1.715999e+00 2.059199e+00 2.059199 0.000000 0.000000 1 -360 360
	 43  28   1.16466000   0.69953200 0.000000 1.919995e+00 2.303994e+00 2.303994 0.000000 0.000000 1 -360 360
	 38  37   0.12371400   0.14966700 0.000000 2.604001e+00 3.124801e+00 3.124801 0.000000 0.000000 1 -360 360
	 37  40   0.04075300   0.04930210 0.000000 2.604001e+00 3.124801e+00 3.124801 0.000000 0.000000 1 -360 360
	 36  40   0.27322300   0.14727300 0.000000 1.799998e+00 2.159998e+00 2.159998 0.000000 0.000000 1 -360 360
	 40  39   0.60336800   0.32522700 0.000000 1.799998e+00 2.159998e+00 2.159998 0.000000 0.000000 1 -360 360
	 39  66   1.38129000   0.74454500 0.000000 1.799998e+00 2.159998e+00 2.159998 0.000000 0.000000 1 -360 360
	 33  39   2.37932000   1.28250000 0.000000 1.799998e+00 2.159998e+00 2.159998 0.000000 0.000000 1 -360 360
	 30  31   0.31405000   0.10798900 0.000000 1.056000e+00 1.267199e+00 1.267199 0.000000 0.000000 1 -360 360
	 30  32   2.39730000   0.81619000 0.000000 1.056000e+00 1.267199e+00 1.267199 0.000000 0.000000 1 -360 360
	 27  32   0.05348700   0.01601130 0.000000 4.116004e+00 4.939205e+00 4.939205 0.000000 0.000000 1 -360 360
	 24  23   0.09270890   0.05568410 0.000000 1.919995e+00 2.303994e+00 2.303994 0.000000 0.000000 1 -360 360
	 23  18   0.93288300   0.56032100 0.000000 1.919995e+00 2.303994e+00 2.303994 0.000000 0.000000 1 -360 360
	  3   4   0.00000083   0.00000083 0.000000 6.000001e+01 7.200002e+01 72.000016 0.000000 0.000000 1 -360 360
	  4   9   0.00000083   0.00000083 0.000000 6.000001e+01 7.200002e+01 72.000016 0.000000 0.000000 1 -360 360
	  9  11   0.00000049   0.00000049 0.000000 6.000001e+01 7.200002e+01 72.000016 0.000000 0.000000 1 -360 360
	 11  10   0.00000049   0.00000049 0.000000 6.000001e+01 7.200002e+01 72.000016 0.000000 0.000000 1 -360 360
	 14  10   0.26695200   0.08704970 0.000000 3.486001e+00 4.183201e+00 4.183201 0.000000 0.000000 1 -360 360
	 12  22   0.57917000   0.13301000 0.000000 2.796005e+00 3.355206e+00 3.355206 0.000000 0.000000 1 -360 360 % feeder 2
	 22  21   0.21162500   0.06900830 0.000000 3.486001e+00 4.183201e+00 4.183201 0.000000 0.000000 1 -360 360
	 14  12   0.53326900   0.11289400 0.000000 2.796005e+00 3.355206e+00 3.355206 0.000000 0.000000 1 -360 360
	 13  14   0.33019600   0.10767300 0.000000 3.486001e+00 4.183201e+00 4.183201 0.000000 0.000000 1 -360 360
	];

% Generator data
% bus	Pg	    Qg	  Qmax Qmin	Vg   mBase status Pmax Pmin	Pc1	Pc2	Qc1min	Qc1max	Qc2min Qc2max ramp_acg	ramp_10	ramp_30	ramp_q  Apf
mpc.gen=[
	  3 3.340948 1.106580 1000 -1000 1 100 1 1000 -1000 0 0 0 0 0 0 0 0 0 0 0
	];

%-----  OPF Data  -----

% Generator cost data
%	1	startup	shutdown	n	x1	y1	...	xn	yn
%	2	startup	shutdown	n	c(n-1)	...	c0
mpc.gencost=[
	2	0	0	3	0.25	20	0;
	];

mpc.coordinates = [
    -1446 977;-1446 977;-1446 981;-1446 981;-1446 977;-1446 981;-1446 977;
    -1446 979;-1446 981;-1446 981;-1446 981;-1615 950;-1738 1003;-1582 1042;
    -1451 971;-1654 749;-1539 449;-1666 604;-1579 704;-1504 869;-1824 894;
    -1699 879;-1720 455;-1725 40;-1828 355;-1767 411;-1759 18;-1589 9;
    -1579 389;-1899 164;-1918 180;-1753 29;-2239 69;-2041 52;-2164 -291;
    -2234 -266;-2264 -241;-2253 -200;-2343 -227;-2268 -254;-1589 -551;
    -1809 -401;-1524 -181;-1819 -311;-1856 -348;-1813 -355;-1514 -646;
    -1534 -608;-1234 -216;-1159 -186;-1054 -76;-1264 -493;-1414 -546;
    -1184 -371;-1329 -271;-1239 -496;-1189 -396;-1186 -224;-1329 -203;
    -1265 -501;-1094 -118;-1194 14;-1244 184;-1169 49;-1168 -1;-2514 -166
    ];

%-----  Demand data  -----

%
mpc.demandP = [
    0.000000 0.000000 0.000000 0.000000 0.000000 0.000000 0.000000 0.000000 0.000000 0.000000 0.000000 0.000000 0.000000 0.000000 0.000000 0.000000 0.000000 0.000000 0.000000 0.000000 0.000000 0.000000 0.000000 0.000000
    0.000000 0.000000 0.000000 0.000000 0.000000 0.000000 0.000000 0.000000 0.000000 0.000000 0.000000 0.000000 0.000000 0.000000 0.000000 0.000000 0.000000 0.000000 0.000000 0.000000 0.000000 0.000000 0.000000 0.000000
    0.000000 0.000000 0.000000 0.000000 0.000000 0.000000 0.000000 0.000000 0.000000 0.000000 0.000000 0.000000 0.000000 0.000000 0.000000 0.000000 0.000000 0.000000 0.000000 0.000000 0.000000 0.000000 0.000000 0.000000
    0.000000 0.000000 0.000000 0.000000 0.000000 0.000000 0.000000 0.000000 0.000000 0.000000 0.000000 0.000000 0.000000 0.000000 0.000000 0.000000 0.000000 0.000000 0.000000 0.000000 0.000000 0.000000 0.000000 0.000000
    0.000000 0.000000 0.000000 0.000000 0.000000 0.000000 0.000000 0.000000 0.000000 0.000000 0.000000 0.000000 0.000000 0.000000 0.000000 0.000000 0.000000 0.000000 0.000000 0.000000 0.000000 0.000000 0.000000 0.000000
    0.000000 0.000000 0.000000 0.000000 0.000000 0.000000 0.000000 0.000000 0.000000 0.000000 0.000000 0.000000 0.000000 0.000000 0.000000 0.000000 0.000000 0.000000 0.000000 0.000000 0.000000 0.000000 0.000000 0.000000
    0.000000 0.000000 0.000000 0.000000 0.000000 0.000000 0.000000 0.000000 0.000000 0.000000 0.000000 0.000000 0.000000 0.000000 0.000000 0.000000 0.000000 0.000000 0.000000 0.000000 0.000000 0.000000 0.000000 0.000000
    0.000000 0.000000 0.000000 0.000000 0.000000 0.000000 0.000000 0.000000 0.000000 0.000000 0.000000 0.000000 0.000000 0.000000 0.000000 0.000000 0.000000 0.000000 0.000000 0.000000 0.000000 0.000000 0.000000 0.000000
    0.000000 0.000000 0.000000 0.000000 0.000000 0.000000 0.000000 0.000000 0.000000 0.000000 0.000000 0.000000 0.000000 0.000000 0.000000 0.000000 0.000000 0.000000 0.000000 0.000000 0.000000 0.000000 0.000000 0.000000
    0.000000 0.000000 0.000000 0.000000 0.000000 0.000000 0.000000 0.000000 0.000000 0.000000 0.000000 0.000000 0.000000 0.000000 0.000000 0.000000 0.000000 0.000000 0.000000 0.000000 0.000000 0.000000 0.000000 0.000000
    0.000000 0.000000 0.000000 0.000000 0.000000 0.000000 0.000000 0.000000 0.000000 0.000000 0.000000 0.000000 0.000000 0.000000 0.000000 0.000000 0.000000 0.000000 0.000000 0.000000 0.000000 0.000000 0.000000 0.000000
    0.089588 0.089359 0.087981 0.088842 0.088268 0.087121 0.075929 0.076044 0.077938 0.096016 0.102674 0.108815 0.110709 0.107437 0.101411 0.099976 0.099001 0.098829 0.097451 0.100550 0.100206 0.093663 0.090564 0.090564
    0.294746 0.293991 0.289459 0.292291 0.290403 0.286627 0.249807 0.250185 0.256416 0.315894 0.337797 0.358000 0.364231 0.353469 0.333643 0.328922 0.325712 0.325146 0.320614 0.330810 0.329678 0.308152 0.297956 0.297956
    0.000000 0.000000 0.000000 0.000000 0.000000 0.000000 0.000000 0.000000 0.000000 0.000000 0.000000 0.000000 0.000000 0.000000 0.000000 0.000000 0.000000 0.000000 0.000000 0.000000 0.000000 0.000000 0.000000 0.000000
    0.000000 0.000000 0.000000 0.000000 0.000000 0.000000 0.000000 0.000000 0.000000 0.000000 0.000000 0.000000 0.000000 0.000000 0.000000 0.000000 0.000000 0.000000 0.000000 0.000000 0.000000 0.000000 0.000000 0.000000
    0.072556 0.065818 0.060640 0.061787 0.060228 0.057992 0.054461 0.056432 0.070643 0.078676 0.084325 0.089974 0.090798 0.092034 0.090121 0.088856 0.089621 0.099036 0.105215 0.106333 0.105391 0.097094 0.086679 0.081383
    0.115168 0.104473 0.096254 0.098075 0.095600 0.092050 0.086446 0.089575 0.112133 0.124882 0.133849 0.142816 0.144124 0.146085 0.143050 0.141041 0.142256 0.157200 0.167008 0.168783 0.167288 0.154118 0.137585 0.129179
    0.019195 0.017412 0.016042 0.016346 0.015933 0.015342 0.014408 0.014929 0.018689 0.020814 0.022308 0.023803 0.024021 0.024348 0.023842 0.023507 0.023709 0.026200 0.027835 0.028130 0.027881 0.025686 0.022931 0.021530
    0.171984 0.156013 0.143739 0.146459 0.142762 0.137462 0.129093 0.133766 0.167451 0.186491 0.199881 0.213272 0.215225 0.218154 0.213621 0.210622 0.212435 0.234752 0.249398 0.252049 0.249817 0.230149 0.205461 0.192907
    0.044532 0.040396 0.037218 0.037922 0.036965 0.035593 0.033426 0.034636 0.043358 0.048288 0.051755 0.055222 0.055728 0.056486 0.055313 0.054536 0.055006 0.060784 0.064577 0.065263 0.064685 0.059592 0.053200 0.049949
    0.165291 0.164867 0.162326 0.163914 0.162855 0.160738 0.140090 0.140301 0.143796 0.177150 0.189433 0.200763 0.204258 0.198222 0.187104 0.184457 0.182656 0.182339 0.179797 0.185515 0.184880 0.172809 0.167091 0.167091
    0.088245 0.088019 0.086662 0.087510 0.086945 0.085814 0.074790 0.074904 0.076769 0.094576 0.101134 0.107183 0.109048 0.105826 0.099890 0.098477 0.097516 0.097346 0.095990 0.099042 0.098703 0.092259 0.089206 0.089206
    0.000000 0.000000 0.000000 0.000000 0.000000 0.000000 0.000000 0.000000 0.000000 0.000000 0.000000 0.000000 0.000000 0.000000 0.000000 0.000000 0.000000 0.000000 0.000000 0.000000 0.000000 0.000000 0.000000 0.000000
    0.000000 0.000000 0.000000 0.000000 0.000000 0.000000 0.000000 0.000000 0.000000 0.000000 0.000000 0.000000 0.000000 0.000000 0.000000 0.000000 0.000000 0.000000 0.000000 0.000000 0.000000 0.000000 0.000000 0.000000
    0.009597 0.008706 0.008021 0.008173 0.007967 0.007671 0.007204 0.007465 0.009344 0.010407 0.011154 0.011901 0.012010 0.012174 0.011921 0.011753 0.011855 0.013100 0.013917 0.014065 0.013941 0.012843 0.011465 0.010765
    0.000000 0.000000 0.000000 0.000000 0.000000 0.000000 0.000000 0.000000 0.000000 0.000000 0.000000 0.000000 0.000000 0.000000 0.000000 0.000000 0.000000 0.000000 0.000000 0.000000 0.000000 0.000000 0.000000 0.000000
    0.072556 0.065818 0.060640 0.061787 0.060228 0.057992 0.054461 0.056432 0.070643 0.078676 0.084325 0.089974 0.090798 0.092034 0.090121 0.088856 0.089621 0.099036 0.105215 0.106333 0.105391 0.097094 0.086679 0.081383
    0.003071 0.002786 0.002567 0.002615 0.002549 0.002455 0.002305 0.002389 0.002990 0.003330 0.003569 0.003808 0.003843 0.003896 0.003815 0.003761 0.003793 0.004192 0.004454 0.004501 0.004461 0.004110 0.003669 0.003445
    0.130524 0.118403 0.109088 0.111152 0.108347 0.104324 0.097972 0.101519 0.127084 0.141533 0.151696 0.161858 0.163340 0.165563 0.162123 0.159847 0.161223 0.178161 0.189276 0.191287 0.189593 0.174667 0.155930 0.146403
    0.000000 0.000000 0.000000 0.000000 0.000000 0.000000 0.000000 0.000000 0.000000 0.000000 0.000000 0.000000 0.000000 0.000000 0.000000 0.000000 0.000000 0.000000 0.000000 0.000000 0.000000 0.000000 0.000000 0.000000
    0.000000 0.000000 0.000000 0.000000 0.000000 0.000000 0.000000 0.000000 0.000000 0.000000 0.000000 0.000000 0.000000 0.000000 0.000000 0.000000 0.000000 0.000000 0.000000 0.000000 0.000000 0.000000 0.000000 0.000000
    0.000000 0.000000 0.000000 0.000000 0.000000 0.000000 0.000000 0.000000 0.000000 0.000000 0.000000 0.000000 0.000000 0.000000 0.000000 0.000000 0.000000 0.000000 0.000000 0.000000 0.000000 0.000000 0.000000 0.000000
    0.003071 0.002786 0.002567 0.002615 0.002549 0.002455 0.002305 0.002389 0.002990 0.003330 0.003569 0.003808 0.003843 0.003896 0.003815 0.003761 0.003793 0.004192 0.004454 0.004501 0.004461 0.004110 0.003669 0.003445
    0.000000 0.000000 0.000000 0.000000 0.000000 0.000000 0.000000 0.000000 0.000000 0.000000 0.000000 0.000000 0.000000 0.000000 0.000000 0.000000 0.000000 0.000000 0.000000 0.000000 0.000000 0.000000 0.000000 0.000000
    0.004607 0.004179 0.003850 0.003923 0.003824 0.003682 0.003458 0.003583 0.004485 0.004995 0.005354 0.005713 0.005765 0.005843 0.005722 0.005642 0.005690 0.006288 0.006680 0.006751 0.006692 0.006165 0.005503 0.005167
    0.004607 0.004179 0.003850 0.003923 0.003824 0.003682 0.003458 0.003583 0.004485 0.004995 0.005354 0.005713 0.005765 0.005843 0.005722 0.005642 0.005690 0.006288 0.006680 0.006751 0.006692 0.006165 0.005503 0.005167
    0.000000 0.000000 0.000000 0.000000 0.000000 0.000000 0.000000 0.000000 0.000000 0.000000 0.000000 0.000000 0.000000 0.000000 0.000000 0.000000 0.000000 0.000000 0.000000 0.000000 0.000000 0.000000 0.000000 0.000000
    0.000000 0.000000 0.000000 0.000000 0.000000 0.000000 0.000000 0.000000 0.000000 0.000000 0.000000 0.000000 0.000000 0.000000 0.000000 0.000000 0.000000 0.000000 0.000000 0.000000 0.000000 0.000000 0.000000 0.000000
    0.000000 0.000000 0.000000 0.000000 0.000000 0.000000 0.000000 0.000000 0.000000 0.000000 0.000000 0.000000 0.000000 0.000000 0.000000 0.000000 0.000000 0.000000 0.000000 0.000000 0.000000 0.000000 0.000000 0.000000
    0.000000 0.000000 0.000000 0.000000 0.000000 0.000000 0.000000 0.000000 0.000000 0.000000 0.000000 0.000000 0.000000 0.000000 0.000000 0.000000 0.000000 0.000000 0.000000 0.000000 0.000000 0.000000 0.000000 0.000000
    0.009597 0.008706 0.008021 0.008173 0.007967 0.007671 0.007204 0.007465 0.009344 0.010407 0.011154 0.011901 0.012010 0.012174 0.011921 0.011753 0.011855 0.013100 0.013917 0.014065 0.013941 0.012843 0.011465 0.010765
    0.001919 0.001741 0.001604 0.001635 0.001593 0.001534 0.001441 0.001493 0.001869 0.002081 0.002231 0.002380 0.002402 0.002435 0.002384 0.002351 0.002371 0.002620 0.002783 0.002813 0.002788 0.002569 0.002293 0.002153
    0.003071 0.002786 0.002567 0.002615 0.002549 0.002455 0.002305 0.002389 0.002990 0.003330 0.003569 0.003808 0.003843 0.003896 0.003815 0.003761 0.003793 0.004192 0.004454 0.004501 0.004461 0.004110 0.003669 0.003445
    0.000000 0.000000 0.000000 0.000000 0.000000 0.000000 0.000000 0.000000 0.000000 0.000000 0.000000 0.000000 0.000000 0.000000 0.000000 0.000000 0.000000 0.000000 0.000000 0.000000 0.000000 0.000000 0.000000 0.000000
    0.000000 0.000000 0.000000 0.000000 0.000000 0.000000 0.000000 0.000000 0.000000 0.000000 0.000000 0.000000 0.000000 0.000000 0.000000 0.000000 0.000000 0.000000 0.000000 0.000000 0.000000 0.000000 0.000000 0.000000
    0.000000 0.000000 0.000000 0.000000 0.000000 0.000000 0.000000 0.000000 0.000000 0.000000 0.000000 0.000000 0.000000 0.000000 0.000000 0.000000 0.000000 0.000000 0.000000 0.000000 0.000000 0.000000 0.000000 0.000000
    0.009597 0.008706 0.008021 0.008173 0.007967 0.007671 0.007204 0.007465 0.009344 0.010407 0.011154 0.011901 0.012010 0.012174 0.011921 0.011753 0.011855 0.013100 0.013917 0.014065 0.013941 0.012843 0.011465 0.010765
    0.003071 0.002786 0.002567 0.002615 0.002549 0.002455 0.002305 0.002389 0.002990 0.003330 0.003569 0.003808 0.003843 0.003896 0.003815 0.003761 0.003793 0.004192 0.004454 0.004501 0.004461 0.004110 0.003669 0.003445
    0.003071 0.002786 0.002567 0.002615 0.002549 0.002455 0.002305 0.002389 0.002990 0.003330 0.003569 0.003808 0.003843 0.003896 0.003815 0.003761 0.003793 0.004192 0.004454 0.004501 0.004461 0.004110 0.003669 0.003445
    0.001919 0.001741 0.001604 0.001635 0.001593 0.001534 0.001441 0.001493 0.001869 0.002081 0.002231 0.002380 0.002402 0.002435 0.002384 0.002351 0.002371 0.002620 0.002783 0.002813 0.002788 0.002569 0.002293 0.002153
    0.004607 0.004179 0.003850 0.003923 0.003824 0.003682 0.003458 0.003583 0.004485 0.004995 0.005354 0.005713 0.005765 0.005843 0.005722 0.005642 0.005690 0.006288 0.006680 0.006751 0.006692 0.006165 0.005503 0.005167
    0.046067 0.041789 0.038501 0.039230 0.038240 0.036820 0.034578 0.035830 0.044853 0.049953 0.053539 0.057126 0.057649 0.058434 0.057220 0.056416 0.056902 0.062880 0.066803 0.067513 0.066915 0.061647 0.055034 0.051671
    0.009597 0.008706 0.008021 0.008173 0.007967 0.007671 0.007204 0.007465 0.009344 0.010407 0.011154 0.011901 0.012010 0.012174 0.011921 0.011753 0.011855 0.013100 0.013917 0.014065 0.013941 0.012843 0.011465 0.010765
    0.009597 0.008706 0.008021 0.008173 0.007967 0.007671 0.007204 0.007465 0.009344 0.010407 0.011154 0.011901 0.012010 0.012174 0.011921 0.011753 0.011855 0.013100 0.013917 0.014065 0.013941 0.012843 0.011465 0.010765
    0.000768 0.000696 0.000642 0.000654 0.000637 0.000614 0.000576 0.000597 0.000748 0.000833 0.000892 0.000952 0.000961 0.000974 0.000954 0.000940 0.000948 0.001048 0.001113 0.001125 0.001115 0.001027 0.000917 0.000861
    0.000000 0.000000 0.000000 0.000000 0.000000 0.000000 0.000000 0.000000 0.000000 0.000000 0.000000 0.000000 0.000000 0.000000 0.000000 0.000000 0.000000 0.000000 0.000000 0.000000 0.000000 0.000000 0.000000 0.000000
    0.000000 0.000000 0.000000 0.000000 0.000000 0.000000 0.000000 0.000000 0.000000 0.000000 0.000000 0.000000 0.000000 0.000000 0.000000 0.000000 0.000000 0.000000 0.000000 0.000000 0.000000 0.000000 0.000000 0.000000
    0.000000 0.000000 0.000000 0.000000 0.000000 0.000000 0.000000 0.000000 0.000000 0.000000 0.000000 0.000000 0.000000 0.000000 0.000000 0.000000 0.000000 0.000000 0.000000 0.000000 0.000000 0.000000 0.000000 0.000000
    0.000000 0.000000 0.000000 0.000000 0.000000 0.000000 0.000000 0.000000 0.000000 0.000000 0.000000 0.000000 0.000000 0.000000 0.000000 0.000000 0.000000 0.000000 0.000000 0.000000 0.000000 0.000000 0.000000 0.000000
    0.000000 0.000000 0.000000 0.000000 0.000000 0.000000 0.000000 0.000000 0.000000 0.000000 0.000000 0.000000 0.000000 0.000000 0.000000 0.000000 0.000000 0.000000 0.000000 0.000000 0.000000 0.000000 0.000000 0.000000
    0.000000 0.000000 0.000000 0.000000 0.000000 0.000000 0.000000 0.000000 0.000000 0.000000 0.000000 0.000000 0.000000 0.000000 0.000000 0.000000 0.000000 0.000000 0.000000 0.000000 0.000000 0.000000 0.000000 0.000000
    0.001919 0.001741 0.001604 0.001635 0.001593 0.001534 0.001441 0.001493 0.001869 0.002081 0.002231 0.002380 0.002402 0.002435 0.002384 0.002351 0.002371 0.002620 0.002783 0.002813 0.002788 0.002569 0.002293 0.002153
    0.002687 0.002438 0.002246 0.002288 0.002231 0.002148 0.002017 0.002090 0.002616 0.002914 0.003123 0.003332 0.003363 0.003409 0.003338 0.003291 0.003319 0.003668 0.003897 0.003938 0.003903 0.003596 0.003210 0.003014
    0.000000 0.000000 0.000000 0.000000 0.000000 0.000000 0.000000 0.000000 0.000000 0.000000 0.000000 0.000000 0.000000 0.000000 0.000000 0.000000 0.000000 0.000000 0.000000 0.000000 0.000000 0.000000 0.000000 0.000000
    0.000000 0.000000 0.000000 0.000000 0.000000 0.000000 0.000000 0.000000 0.000000 0.000000 0.000000 0.000000 0.000000 0.000000 0.000000 0.000000 0.000000 0.000000 0.000000 0.000000 0.000000 0.000000 0.000000 0.000000
    0.000768 0.000696 0.000642 0.000654 0.000637 0.000614 0.000576 0.000597 0.000748 0.000833 0.000892 0.000952 0.000961 0.000974 0.000954 0.000940 0.000948 0.001048 0.001113 0.001125 0.001115 0.001027 0.000917 0.000861
    ];

mpc.demandQ = [
    0.000000 0.000000 0.000000 0.000000 0.000000 0.000000 0.000000 0.000000 0.000000 0.000000 0.000000 0.000000 0.000000 0.000000 0.000000 0.000000 0.000000 0.000000 0.000000 0.000000 0.000000 0.000000 0.000000 0.000000
    0.000000 0.000000 0.000000 0.000000 0.000000 0.000000 0.000000 0.000000 0.000000 0.000000 0.000000 0.000000 0.000000 0.000000 0.000000 0.000000 0.000000 0.000000 0.000000 0.000000 0.000000 0.000000 0.000000 0.000000
    0.000000 0.000000 0.000000 0.000000 0.000000 0.000000 0.000000 0.000000 0.000000 0.000000 0.000000 0.000000 0.000000 0.000000 0.000000 0.000000 0.000000 0.000000 0.000000 0.000000 0.000000 0.000000 0.000000 0.000000
    0.000000 0.000000 0.000000 0.000000 0.000000 0.000000 0.000000 0.000000 0.000000 0.000000 0.000000 0.000000 0.000000 0.000000 0.000000 0.000000 0.000000 0.000000 0.000000 0.000000 0.000000 0.000000 0.000000 0.000000
    0.000000 0.000000 0.000000 0.000000 0.000000 0.000000 0.000000 0.000000 0.000000 0.000000 0.000000 0.000000 0.000000 0.000000 0.000000 0.000000 0.000000 0.000000 0.000000 0.000000 0.000000 0.000000 0.000000 0.000000
    0.000000 0.000000 0.000000 0.000000 0.000000 0.000000 0.000000 0.000000 0.000000 0.000000 0.000000 0.000000 0.000000 0.000000 0.000000 0.000000 0.000000 0.000000 0.000000 0.000000 0.000000 0.000000 0.000000 0.000000
    0.000000 0.000000 0.000000 0.000000 0.000000 0.000000 0.000000 0.000000 0.000000 0.000000 0.000000 0.000000 0.000000 0.000000 0.000000 0.000000 0.000000 0.000000 0.000000 0.000000 0.000000 0.000000 0.000000 0.000000
    0.000000 0.000000 0.000000 0.000000 0.000000 0.000000 0.000000 0.000000 0.000000 0.000000 0.000000 0.000000 0.000000 0.000000 0.000000 0.000000 0.000000 0.000000 0.000000 0.000000 0.000000 0.000000 0.000000 0.000000
    0.000000 0.000000 0.000000 0.000000 0.000000 0.000000 0.000000 0.000000 0.000000 0.000000 0.000000 0.000000 0.000000 0.000000 0.000000 0.000000 0.000000 0.000000 0.000000 0.000000 0.000000 0.000000 0.000000 0.000000
    0.000000 0.000000 0.000000 0.000000 0.000000 0.000000 0.000000 0.000000 0.000000 0.000000 0.000000 0.000000 0.000000 0.000000 0.000000 0.000000 0.000000 0.000000 0.000000 0.000000 0.000000 0.000000 0.000000 0.000000
    0.000000 0.000000 0.000000 0.000000 0.000000 0.000000 0.000000 0.000000 0.000000 0.000000 0.000000 0.000000 0.000000 0.000000 0.000000 0.000000 0.000000 0.000000 0.000000 0.000000 0.000000 0.000000 0.000000 0.000000
    0.029446 0.029371 0.028918 0.029201 0.029012 0.028635 0.024957 0.024994 0.025617 0.031559 0.033747 0.035766 0.036388 0.035313 0.033332 0.032861 0.032540 0.032483 0.032031 0.033049 0.032936 0.030786 0.029767 0.029767
    0.096879 0.096630 0.095141 0.096072 0.095451 0.094210 0.082108 0.082232 0.084280 0.103829 0.111029 0.117669 0.119717 0.116180 0.109663 0.108112 0.107057 0.106871 0.105381 0.108732 0.108360 0.101285 0.097934 0.097934
    0.000000 0.000000 0.000000 0.000000 0.000000 0.000000 0.000000 0.000000 0.000000 0.000000 0.000000 0.000000 0.000000 0.000000 0.000000 0.000000 0.000000 0.000000 0.000000 0.000000 0.000000 0.000000 0.000000 0.000000
    0.000000 0.000000 0.000000 0.000000 0.000000 0.000000 0.000000 0.000000 0.000000 0.000000 0.000000 0.000000 0.000000 0.000000 0.000000 0.000000 0.000000 0.000000 0.000000 0.000000 0.000000 0.000000 0.000000 0.000000
    0.023848 0.021633 0.019931 0.020309 0.019796 0.019061 0.017901 0.018548 0.023219 0.025860 0.027716 0.029573 0.029844 0.030250 0.029621 0.029206 0.029457 0.032552 0.034582 0.034950 0.034641 0.031913 0.028490 0.026749
    0.037854 0.034339 0.031637 0.032236 0.031422 0.030256 0.028414 0.029442 0.036856 0.041047 0.043994 0.046941 0.047371 0.048016 0.047018 0.046358 0.046757 0.051669 0.054893 0.055476 0.054985 0.050656 0.045222 0.042459
    0.006309 0.005723 0.005273 0.005373 0.005237 0.005043 0.004736 0.004907 0.006143 0.006841 0.007332 0.007824 0.007895 0.008003 0.007836 0.007726 0.007793 0.008612 0.009149 0.009246 0.009164 0.008443 0.007537 0.007077
    0.056529 0.051279 0.047245 0.048139 0.046924 0.045182 0.042431 0.043967 0.055039 0.061297 0.065698 0.070099 0.070741 0.071704 0.070214 0.069228 0.069824 0.077160 0.081973 0.082845 0.082111 0.075647 0.067532 0.063406
    0.014637 0.013278 0.012233 0.012464 0.012150 0.011699 0.010987 0.011384 0.014251 0.015871 0.017011 0.018151 0.018317 0.018566 0.018180 0.017925 0.018079 0.019979 0.021225 0.021451 0.021261 0.019587 0.017486 0.016418
    0.054328 0.054189 0.053354 0.053876 0.053528 0.052832 0.046045 0.046115 0.047263 0.058226 0.062263 0.065987 0.067136 0.065152 0.061498 0.060628 0.060036 0.059932 0.059096 0.060976 0.060767 0.056799 0.054920 0.054920
    0.029005 0.028930 0.028484 0.028763 0.028577 0.028206 0.024582 0.024620 0.025233 0.031086 0.033241 0.035229 0.035842 0.034783 0.032832 0.032368 0.032052 0.031996 0.031550 0.032554 0.032442 0.030324 0.029321 0.029321
    0.000000 0.000000 0.000000 0.000000 0.000000 0.000000 0.000000 0.000000 0.000000 0.000000 0.000000 0.000000 0.000000 0.000000 0.000000 0.000000 0.000000 0.000000 0.000000 0.000000 0.000000 0.000000 0.000000 0.000000
    0.000000 0.000000 0.000000 0.000000 0.000000 0.000000 0.000000 0.000000 0.000000 0.000000 0.000000 0.000000 0.000000 0.000000 0.000000 0.000000 0.000000 0.000000 0.000000 0.000000 0.000000 0.000000 0.000000 0.000000
    0.003154 0.002862 0.002636 0.002686 0.002619 0.002521 0.002368 0.002453 0.003071 0.003421 0.003666 0.003912 0.003948 0.004001 0.003918 0.003863 0.003896 0.004306 0.004574 0.004623 0.004582 0.004221 0.003769 0.003538
    0.000000 0.000000 0.000000 0.000000 0.000000 0.000000 0.000000 0.000000 0.000000 0.000000 0.000000 0.000000 0.000000 0.000000 0.000000 0.000000 0.000000 0.000000 0.000000 0.000000 0.000000 0.000000 0.000000 0.000000
    0.023848 0.021633 0.019931 0.020309 0.019796 0.019061 0.017901 0.018548 0.023219 0.025860 0.027716 0.029573 0.029844 0.030250 0.029621 0.029206 0.029457 0.032552 0.034582 0.034950 0.034641 0.031913 0.028490 0.026749
    0.001009 0.000916 0.000844 0.000860 0.000838 0.000807 0.000758 0.000785 0.000983 0.001095 0.001173 0.001252 0.001263 0.001280 0.001254 0.001236 0.001247 0.001378 0.001464 0.001479 0.001466 0.001351 0.001206 0.001132
    0.042901 0.038917 0.035855 0.036534 0.035612 0.034290 0.032202 0.033367 0.041770 0.046520 0.049860 0.053200 0.053687 0.054418 0.053287 0.052539 0.052991 0.058558 0.062212 0.062873 0.062316 0.057410 0.051252 0.048120
    0.000000 0.000000 0.000000 0.000000 0.000000 0.000000 0.000000 0.000000 0.000000 0.000000 0.000000 0.000000 0.000000 0.000000 0.000000 0.000000 0.000000 0.000000 0.000000 0.000000 0.000000 0.000000 0.000000 0.000000
    0.000000 0.000000 0.000000 0.000000 0.000000 0.000000 0.000000 0.000000 0.000000 0.000000 0.000000 0.000000 0.000000 0.000000 0.000000 0.000000 0.000000 0.000000 0.000000 0.000000 0.000000 0.000000 0.000000 0.000000
    0.000000 0.000000 0.000000 0.000000 0.000000 0.000000 0.000000 0.000000 0.000000 0.000000 0.000000 0.000000 0.000000 0.000000 0.000000 0.000000 0.000000 0.000000 0.000000 0.000000 0.000000 0.000000 0.000000 0.000000
    0.001009 0.000916 0.000844 0.000860 0.000838 0.000807 0.000758 0.000785 0.000983 0.001095 0.001173 0.001252 0.001263 0.001280 0.001254 0.001236 0.001247 0.001378 0.001464 0.001479 0.001466 0.001351 0.001206 0.001132
    0.000000 0.000000 0.000000 0.000000 0.000000 0.000000 0.000000 0.000000 0.000000 0.000000 0.000000 0.000000 0.000000 0.000000 0.000000 0.000000 0.000000 0.000000 0.000000 0.000000 0.000000 0.000000 0.000000 0.000000
    0.001514 0.001374 0.001265 0.001289 0.001257 0.001210 0.001137 0.001178 0.001474 0.001642 0.001760 0.001878 0.001895 0.001921 0.001881 0.001854 0.001870 0.002067 0.002196 0.002219 0.002199 0.002026 0.001809 0.001698
    0.001514 0.001374 0.001265 0.001289 0.001257 0.001210 0.001137 0.001178 0.001474 0.001642 0.001760 0.001878 0.001895 0.001921 0.001881 0.001854 0.001870 0.002067 0.002196 0.002219 0.002199 0.002026 0.001809 0.001698
    0.000000 0.000000 0.000000 0.000000 0.000000 0.000000 0.000000 0.000000 0.000000 0.000000 0.000000 0.000000 0.000000 0.000000 0.000000 0.000000 0.000000 0.000000 0.000000 0.000000 0.000000 0.000000 0.000000 0.000000
    0.000000 0.000000 0.000000 0.000000 0.000000 0.000000 0.000000 0.000000 0.000000 0.000000 0.000000 0.000000 0.000000 0.000000 0.000000 0.000000 0.000000 0.000000 0.000000 0.000000 0.000000 0.000000 0.000000 0.000000
    0.000000 0.000000 0.000000 0.000000 0.000000 0.000000 0.000000 0.000000 0.000000 0.000000 0.000000 0.000000 0.000000 0.000000 0.000000 0.000000 0.000000 0.000000 0.000000 0.000000 0.000000 0.000000 0.000000 0.000000
    0.000000 0.000000 0.000000 0.000000 0.000000 0.000000 0.000000 0.000000 0.000000 0.000000 0.000000 0.000000 0.000000 0.000000 0.000000 0.000000 0.000000 0.000000 0.000000 0.000000 0.000000 0.000000 0.000000 0.000000
    0.003154 0.002862 0.002636 0.002686 0.002619 0.002521 0.002368 0.002453 0.003071 0.003421 0.003666 0.003912 0.003948 0.004001 0.003918 0.003863 0.003896 0.004306 0.004574 0.004623 0.004582 0.004221 0.003769 0.003538
    0.000631 0.000572 0.000527 0.000537 0.000524 0.000504 0.000474 0.000491 0.000614 0.000684 0.000733 0.000782 0.000790 0.000800 0.000784 0.000773 0.000779 0.000861 0.000915 0.000925 0.000916 0.000844 0.000754 0.000708
    0.001009 0.000916 0.000844 0.000860 0.000838 0.000807 0.000758 0.000785 0.000983 0.001095 0.001173 0.001252 0.001263 0.001280 0.001254 0.001236 0.001247 0.001378 0.001464 0.001479 0.001466 0.001351 0.001206 0.001132
    0.000000 0.000000 0.000000 0.000000 0.000000 0.000000 0.000000 0.000000 0.000000 0.000000 0.000000 0.000000 0.000000 0.000000 0.000000 0.000000 0.000000 0.000000 0.000000 0.000000 0.000000 0.000000 0.000000 0.000000
    0.000000 0.000000 0.000000 0.000000 0.000000 0.000000 0.000000 0.000000 0.000000 0.000000 0.000000 0.000000 0.000000 0.000000 0.000000 0.000000 0.000000 0.000000 0.000000 0.000000 0.000000 0.000000 0.000000 0.000000
    0.000000 0.000000 0.000000 0.000000 0.000000 0.000000 0.000000 0.000000 0.000000 0.000000 0.000000 0.000000 0.000000 0.000000 0.000000 0.000000 0.000000 0.000000 0.000000 0.000000 0.000000 0.000000 0.000000 0.000000
    0.003154 0.002862 0.002636 0.002686 0.002619 0.002521 0.002368 0.002453 0.003071 0.003421 0.003666 0.003912 0.003948 0.004001 0.003918 0.003863 0.003896 0.004306 0.004574 0.004623 0.004582 0.004221 0.003769 0.003538
    0.001009 0.000916 0.000844 0.000860 0.000838 0.000807 0.000758 0.000785 0.000983 0.001095 0.001173 0.001252 0.001263 0.001280 0.001254 0.001236 0.001247 0.001378 0.001464 0.001479 0.001466 0.001351 0.001206 0.001132
    0.001009 0.000916 0.000844 0.000860 0.000838 0.000807 0.000758 0.000785 0.000983 0.001095 0.001173 0.001252 0.001263 0.001280 0.001254 0.001236 0.001247 0.001378 0.001464 0.001479 0.001466 0.001351 0.001206 0.001132
    0.000631 0.000572 0.000527 0.000537 0.000524 0.000504 0.000474 0.000491 0.000614 0.000684 0.000733 0.000782 0.000790 0.000800 0.000784 0.000773 0.000779 0.000861 0.000915 0.000925 0.000916 0.000844 0.000754 0.000708
    0.001514 0.001374 0.001265 0.001289 0.001257 0.001210 0.001137 0.001178 0.001474 0.001642 0.001760 0.001878 0.001895 0.001921 0.001881 0.001854 0.001870 0.002067 0.002196 0.002219 0.002199 0.002026 0.001809 0.001698
    0.015142 0.013736 0.012655 0.012894 0.012569 0.012102 0.011365 0.011777 0.014742 0.016419 0.017598 0.018777 0.018948 0.019206 0.018807 0.018543 0.018703 0.020668 0.021957 0.022190 0.021994 0.020262 0.018089 0.016984
    0.003154 0.002862 0.002636 0.002686 0.002619 0.002521 0.002368 0.002453 0.003071 0.003421 0.003666 0.003912 0.003948 0.004001 0.003918 0.003863 0.003896 0.004306 0.004574 0.004623 0.004582 0.004221 0.003769 0.003538
    0.003154 0.002862 0.002636 0.002686 0.002619 0.002521 0.002368 0.002453 0.003071 0.003421 0.003666 0.003912 0.003948 0.004001 0.003918 0.003863 0.003896 0.004306 0.004574 0.004623 0.004582 0.004221 0.003769 0.003538
    0.000252 0.000229 0.000211 0.000215 0.000209 0.000202 0.000189 0.000196 0.000246 0.000274 0.000293 0.000313 0.000316 0.000320 0.000313 0.000309 0.000312 0.000344 0.000366 0.000370 0.000367 0.000338 0.000301 0.000283
    0.000000 0.000000 0.000000 0.000000 0.000000 0.000000 0.000000 0.000000 0.000000 0.000000 0.000000 0.000000 0.000000 0.000000 0.000000 0.000000 0.000000 0.000000 0.000000 0.000000 0.000000 0.000000 0.000000 0.000000
    0.000000 0.000000 0.000000 0.000000 0.000000 0.000000 0.000000 0.000000 0.000000 0.000000 0.000000 0.000000 0.000000 0.000000 0.000000 0.000000 0.000000 0.000000 0.000000 0.000000 0.000000 0.000000 0.000000 0.000000
    0.000000 0.000000 0.000000 0.000000 0.000000 0.000000 0.000000 0.000000 0.000000 0.000000 0.000000 0.000000 0.000000 0.000000 0.000000 0.000000 0.000000 0.000000 0.000000 0.000000 0.000000 0.000000 0.000000 0.000000
    0.000000 0.000000 0.000000 0.000000 0.000000 0.000000 0.000000 0.000000 0.000000 0.000000 0.000000 0.000000 0.000000 0.000000 0.000000 0.000000 0.000000 0.000000 0.000000 0.000000 0.000000 0.000000 0.000000 0.000000
    0.000000 0.000000 0.000000 0.000000 0.000000 0.000000 0.000000 0.000000 0.000000 0.000000 0.000000 0.000000 0.000000 0.000000 0.000000 0.000000 0.000000 0.000000 0.000000 0.000000 0.000000 0.000000 0.000000 0.000000
    0.000000 0.000000 0.000000 0.000000 0.000000 0.000000 0.000000 0.000000 0.000000 0.000000 0.000000 0.000000 0.000000 0.000000 0.000000 0.000000 0.000000 0.000000 0.000000 0.000000 0.000000 0.000000 0.000000 0.000000
    0.000631 0.000572 0.000527 0.000537 0.000524 0.000504 0.000474 0.000491 0.000614 0.000684 0.000733 0.000782 0.000790 0.000800 0.000784 0.000773 0.000779 0.000861 0.000915 0.000925 0.000916 0.000844 0.000754 0.000708
    0.000883 0.000801 0.000738 0.000752 0.000733 0.000706 0.000663 0.000687 0.000860 0.000958 0.001027 0.001095 0.001105 0.001120 0.001097 0.001082 0.001091 0.001206 0.001281 0.001294 0.001283 0.001182 0.001055 0.000991
    0.000000 0.000000 0.000000 0.000000 0.000000 0.000000 0.000000 0.000000 0.000000 0.000000 0.000000 0.000000 0.000000 0.000000 0.000000 0.000000 0.000000 0.000000 0.000000 0.000000 0.000000 0.000000 0.000000 0.000000
    0.000000 0.000000 0.000000 0.000000 0.000000 0.000000 0.000000 0.000000 0.000000 0.000000 0.000000 0.000000 0.000000 0.000000 0.000000 0.000000 0.000000 0.000000 0.000000 0.000000 0.000000 0.000000 0.000000 0.000000
    0.000252 0.000229 0.000211 0.000215 0.000209 0.000202 0.000189 0.000196 0.000246 0.000274 0.000293 0.000313 0.000316 0.000320 0.000313 0.000309 0.000312 0.000344 0.000366 0.000370 0.000367 0.000338 0.000301 0.000283
    ];
